<?xml version="1.0" encoding="UTF-8"?>

<!-- generated on 2025-12-03 00:23:37.640530 by randomTrips.py UNKNOWN
<configuration>
    <net-file value="network.net.xml"/>
    <route-file value="routes.rou.xml"/>
    <period value="1.0"/>
</configuration>
-->

<routes xmlns:xsi="http://www.w3.org/2001/XMLSchema-instance" xsi:noNamespaceSchemaLocation="http://sumo.dlr.de/xsd/routes_file.xsd">
    <trip id="0" depart="0.00" from="396952966#1" to="-12184766#1"/>
    <trip id="1" depart="1.00" from="-8917594#3" to="-682453637#1"/>
    <trip id="2" depart="2.00" from="514417090" to="417099343#1"/>
    <trip id="3" depart="3.00" from="8921209#5" to="-23883760#1"/>
    <trip id="4" depart="4.00" from="1112220490#0" to="-1232854793#4"/>
    <trip id="5" depart="5.00" from="-634412037#0" to="215848129#3"/>
    <trip id="6" depart="6.00" from="-12186340#1" to="-514600199#3"/>
    <trip id="7" depart="7.00" from="397084145" to="254759944"/>
    <trip id="8" depart="8.00" from="-669035631#8" to="286265327#18"/>
    <trip id="9" depart="9.00" from="780347916#1" to="-1086989300"/>
    <trip id="10" depart="10.00" from="769990215#2" to="43759510"/>
    <trip id="11" depart="11.00" from="-8932505" to="-397165560#0"/>
    <trip id="12" depart="12.00" from="8939660#6" to="-8932938#20"/>
    <trip id="13" depart="13.00" from="-24444477#5" to="-254756522#4"/>
    <trip id="14" depart="14.00" from="8916946#1" to="30832342#2"/>
    <trip id="15" depart="15.00" from="771799277#2" to="513969375"/>
    <trip id="16" depart="16.00" from="242092413#1" to="90867256#5"/>
    <trip id="17" depart="17.00" from="-8942056#0" to="255178050#2"/>
    <trip id="18" depart="18.00" from="866660385" to="37222613#1"/>
    <trip id="19" depart="19.00" from="8918238#0" to="27397539#0"/>
    <trip id="20" depart="20.00" from="440702255" to="-1349068277"/>
    <trip id="21" depart="21.00" from="-688262559#4" to="-8919777#19"/>
    <trip id="22" depart="22.00" from="-224384031#2" to="-758037031"/>
    <trip id="23" depart="23.00" from="-254760012#3" to="-8918806#0"/>
    <trip id="24" depart="24.00" from="396941180#2" to="-8940200#0"/>
    <trip id="25" depart="25.00" from="-8939892#6" to="-587057159"/>
    <trip id="26" depart="26.00" from="-8916885" to="8935030#2"/>
    <trip id="27" depart="27.00" from="396987207#1" to="32548572#2"/>
    <trip id="28" depart="28.00" from="-417933529#0" to="513879523#1"/>
    <trip id="29" depart="29.00" from="-408589707" to="-91043550#0"/>
    <trip id="30" depart="30.00" from="942003970#1" to="396976080#4"/>
    <trip id="31" depart="31.00" from="255170268#6" to="417699613#2"/>
    <trip id="32" depart="32.00" from="8916550#0" to="681490612#0"/>
    <trip id="33" depart="33.00" from="-702173545" to="-1266009718#3"/>
    <trip id="34" depart="34.00" from="-8925306#0" to="-8917256#0"/>
    <trip id="35" depart="35.00" from="-573565797#1" to="8936225#2"/>
    <trip id="36" depart="36.00" from="8919709#3" to="-8926396#6"/>
    <trip id="37" depart="37.00" from="397121318#0" to="-993919449#4"/>
    <trip id="38" depart="38.00" from="8928621#6" to="133748369"/>
    <trip id="39" depart="39.00" from="-8916683#9" to="-838379562#0"/>
    <trip id="40" depart="40.00" from="255178162#4" to="-8916832#1"/>
    <trip id="41" depart="41.00" from="27570786#0" to="8924743#1"/>
    <trip id="42" depart="42.00" from="-956976987#0" to="-678694731"/>
    <trip id="43" depart="43.00" from="985061716#4" to="222818888"/>
    <trip id="44" depart="44.00" from="-24224716#4" to="-1377975781"/>
    <trip id="45" depart="45.00" from="-255351713#10" to="394725504#0"/>
    <trip id="46" depart="46.00" from="706532923#0" to="1169744493"/>
    <trip id="47" depart="47.00" from="-154745980#0" to="-91185861#1"/>
    <trip id="48" depart="48.00" from="979877850#1" to="240738468#0"/>
    <trip id="49" depart="49.00" from="89812453#1" to="8918851#9"/>
    <trip id="50" depart="50.00" from="-112470382#4" to="493107464"/>
    <trip id="51" depart="51.00" from="417097119#9" to="25372932#7"/>
    <trip id="52" depart="52.00" from="-8916866#5" to="396979771#2"/>
    <trip id="53" depart="53.00" from="-256665032" to="12181496#13"/>
    <trip id="54" depart="54.00" from="1271393343" to="8939238#0"/>
    <trip id="55" depart="55.00" from="8919667#1" to="-8916866#2"/>
    <trip id="56" depart="56.00" from="159318744#1" to="-44670366#8"/>
    <trip id="57" depart="57.00" from="8927974#4" to="8919557"/>
    <trip id="58" depart="58.00" from="-8920383#2" to="396970131"/>
    <trip id="59" depart="59.00" from="30831508#8" to="-397116454#5"/>
    <trip id="60" depart="60.00" from="619310179#1" to="254305044#3"/>
    <trip id="61" depart="61.00" from="680206748#1" to="242139850#3"/>
    <trip id="62" depart="62.00" from="-1006830796#0" to="-8929543#3"/>
    <trip id="63" depart="63.00" from="-12175109#4" to="8933337#0"/>
    <trip id="64" depart="64.00" from="8919864#1" to="8915843#2"/>
    <trip id="65" depart="65.00" from="-8921636#3" to="-145474275#5"/>
    <trip id="66" depart="66.00" from="8919808#3" to="8937482"/>
    <trip id="67" depart="67.00" from="-23073466#1" to="148902182#2"/>
    <trip id="68" depart="68.00" from="-162802656#0" to="619979116#1"/>
    <trip id="69" depart="69.00" from="619979119#3" to="-286434721#18"/>
    <trip id="70" depart="70.00" from="1380860581" to="255168048#2"/>
    <trip id="71" depart="71.00" from="-8916689#8" to="8919710#1"/>
    <trip id="72" depart="72.00" from="1116503323#1" to="-617893863#2"/>
    <trip id="73" depart="73.00" from="24335490#1" to="513977501#1"/>
    <trip id="74" depart="74.00" from="-514580482#1" to="-8925350#1"/>
    <trip id="75" depart="75.00" from="970578569#0" to="397120479"/>
    <trip id="76" depart="76.00" from="12175977#1" to="225840317#0"/>
    <trip id="77" depart="77.00" from="-27044194#4" to="-685492271#1"/>
    <trip id="78" depart="78.00" from="-8931991#0" to="286170873#2"/>
    <trip id="79" depart="79.00" from="-706507144#1" to="-679798799#1"/>
    <trip id="80" depart="80.00" from="-174822357#1" to="396941745#1"/>
    <trip id="81" depart="81.00" from="-701712424" to="8926753#2"/>
    <trip id="82" depart="82.00" from="8917792#2" to="-195870836"/>
    <trip id="83" depart="83.00" from="-771409386#2" to="409961797#2"/>
    <trip id="84" depart="84.00" from="-61760340" to="-29482569#0"/>
    <trip id="85" depart="85.00" from="8934376#9" to="26965387"/>
    <trip id="86" depart="86.00" from="135116225#1" to="703159446#1"/>
    <trip id="87" depart="87.00" from="77405365" to="-48211487#1"/>
    <trip id="88" depart="88.00" from="-254396705#15" to="12176700#0"/>
    <trip id="89" depart="89.00" from="111826650#4" to="1356675868#1"/>
    <trip id="90" depart="90.00" from="505667524#26" to="416169695#0"/>
    <trip id="91" depart="91.00" from="92750492#3" to="-254759953#3"/>
    <trip id="92" depart="92.00" from="-987141689#3" to="-8933738#9"/>
    <trip id="93" depart="93.00" from="8918232#0" to="-85644959#8"/>
    <trip id="94" depart="94.00" from="-47416811#1" to="1279977032#3"/>
    <trip id="95" depart="95.00" from="1111974546#0" to="-8918882#3"/>
    <trip id="96" depart="96.00" from="-838379566#0" to="8931866#2"/>
    <trip id="97" depart="97.00" from="1218390851#0" to="8918917#3"/>
    <trip id="98" depart="98.00" from="254759927#1" to="-1383549497"/>
    <trip id="99" depart="99.00" from="996680758#1" to="8916406#15"/>
    <trip id="100" depart="100.00" from="89525006" to="8932612#2"/>
    <trip id="101" depart="101.00" from="8917032#3" to="-417331103#1"/>
    <trip id="102" depart="102.00" from="1436841489#0" to="-619568423#0"/>
    <trip id="103" depart="103.00" from="-970790468#0" to="-147397959#2"/>
    <trip id="104" depart="104.00" from="-8942189#0" to="92931189"/>
    <trip id="105" depart="105.00" from="-8916738#1" to="701476987#13"/>
    <trip id="106" depart="106.00" from="1283881772#4" to="1178379357#11"/>
    <trip id="107" depart="107.00" from="8939707#2" to="971691471#3"/>
    <trip id="108" depart="108.00" from="255168049#2" to="48435258#0"/>
    <trip id="109" depart="109.00" from="-397109161#1" to="-8920641#0"/>
    <trip id="110" depart="110.00" from="8942783#1" to="276094489#18"/>
    <trip id="111" depart="111.00" from="247329527#3" to="571967264"/>
    <trip id="112" depart="112.00" from="-143666208#0" to="283527494#1"/>
    <trip id="113" depart="113.00" from="163418628#0" to="8917603#5"/>
    <trip id="114" depart="114.00" from="-397148934#0" to="8940928#15"/>
    <trip id="115" depart="115.00" from="-224384047#1" to="-469952152#1"/>
    <trip id="116" depart="116.00" from="286265329#0" to="417087489#0"/>
    <trip id="117" depart="117.00" from="-755098316#0" to="-27147055"/>
    <trip id="118" depart="118.00" from="8921006#0" to="-820921556#0"/>
    <trip id="119" depart="119.00" from="286186806#2" to="37334853#1"/>
    <trip id="120" depart="120.00" from="1094728590" to="283526877#3"/>
    <trip id="121" depart="121.00" from="225808830#10" to="8934567#11"/>
    <trip id="122" depart="122.00" from="-516940749#2" to="48040768#2"/>
    <trip id="123" depart="123.00" from="-776881506#1" to="-996695179#0"/>
    <trip id="124" depart="124.00" from="406548396#0" to="-8921019#4"/>
    <trip id="125" depart="125.00" from="-8925372#0" to="587057159"/>
    <trip id="126" depart="126.00" from="-195045686" to="133743909#1"/>
    <trip id="127" depart="127.00" from="991343628#0" to="978948958#0"/>
    <trip id="128" depart="128.00" from="-204967526#0" to="-619535701#0"/>
    <trip id="129" depart="129.00" from="-8916738#1" to="8934389#0"/>
    <trip id="130" depart="130.00" from="8920065#0" to="8920287"/>
    <trip id="131" depart="131.00" from="-8939753#5" to="-399142440#2"/>
    <trip id="132" depart="132.00" from="88572943#1" to="454116829#1"/>
    <trip id="133" depart="133.00" from="31496168#2" to="93088292#1"/>
    <trip id="134" depart="134.00" from="397112503#0" to="-110797422#0"/>
    <trip id="135" depart="135.00" from="7878283" to="-8920953#0"/>
    <trip id="136" depart="136.00" from="397250665" to="8935489#1"/>
    <trip id="137" depart="137.00" from="-29482560" to="-26435003#7"/>
    <trip id="138" depart="138.00" from="-255178103#11" to="255178084#5"/>
    <trip id="139" depart="139.00" from="-8917338#8" to="310458110#2"/>
    <trip id="140" depart="140.00" from="47183559" to="-524343384"/>
    <trip id="141" depart="141.00" from="395803788" to="-8916913#1"/>
    <trip id="142" depart="142.00" from="1453740571#0" to="8926748#2"/>
    <trip id="143" depart="143.00" from="8916845#2" to="-24556289#0"/>
    <trip id="144" depart="144.00" from="111826650#4" to="-8918545"/>
    <trip id="145" depart="145.00" from="-104597421#0" to="678522939#6"/>
    <trip id="146" depart="146.00" from="396947819#1" to="-8916759#2"/>
    <trip id="147" depart="147.00" from="515436985#1" to="255178038#0"/>
    <trip id="148" depart="148.00" from="114328637#1" to="-1120103262#0"/>
    <trip id="149" depart="149.00" from="-217358402#3" to="8920704#7"/>
    <trip id="150" depart="150.00" from="8925307#0" to="254759970#1"/>
    <trip id="151" depart="151.00" from="8914980#0" to="281967799#2"/>
    <trip id="152" depart="152.00" from="-37610424#3" to="-286265324#0"/>
    <trip id="153" depart="153.00" from="-8921777#7" to="8924967#7"/>
    <trip id="154" depart="154.00" from="718500670#0" to="8918851#2"/>
    <trip id="155" depart="155.00" from="8922648#1" to="-588340588#3"/>
    <trip id="156" depart="156.00" from="-832961189#2" to="-255170267#1"/>
    <trip id="157" depart="157.00" from="681164123" to="8920780#0"/>
    <trip id="158" depart="158.00" from="1016215420#1" to="37751501#2"/>
    <trip id="159" depart="159.00" from="-397103492#0" to="8933550#0"/>
    <trip id="160" depart="160.00" from="8918836#15" to="91050636#0"/>
    <trip id="161" depart="161.00" from="783891859#1" to="8920520#17"/>
    <trip id="162" depart="162.00" from="-12182607" to="515660887"/>
    <trip id="163" depart="163.00" from="-8930370" to="8933845#17"/>
    <trip id="164" depart="164.00" from="758481521#9" to="8919099#4"/>
    <trip id="165" depart="165.00" from="78382211" to="-8917175"/>
    <trip id="166" depart="166.00" from="689603998" to="-255351729#0"/>
    <trip id="167" depart="167.00" from="8919398#2" to="8918530#1"/>
    <trip id="168" depart="168.00" from="-678950365" to="816368482#1"/>
    <trip id="169" depart="169.00" from="1315257829" to="-8922052#0"/>
    <trip id="170" depart="170.00" from="714571118#1" to="-706531343#0"/>
    <trip id="171" depart="171.00" from="-12180960#13" to="-499111611#0"/>
    <trip id="172" depart="172.00" from="-8929451#2" to="8919116#0"/>
    <trip id="173" depart="173.00" from="8942205#7" to="-8918932#1"/>
    <trip id="174" depart="174.00" from="396959346#0" to="1029399048#0"/>
    <trip id="175" depart="175.00" from="919204680#4" to="247329526#0"/>
    <trip id="176" depart="176.00" from="8935087" to="-26434974#8"/>
    <trip id="177" depart="177.00" from="89802440#6" to="-44670366#12"/>
    <trip id="178" depart="178.00" from="8941164#1" to="-8917074#0"/>
    <trip id="179" depart="179.00" from="-255178153#6" to="12180960#7"/>
    <trip id="180" depart="180.00" from="50523282#4" to="-8926118#1"/>
    <trip id="181" depart="181.00" from="30035688#4" to="224200962#2"/>
    <trip id="182" depart="182.00" from="-90942677#4" to="27239293#3"/>
    <trip id="183" depart="183.00" from="-87297164#3" to="467991735#26"/>
    <trip id="184" depart="184.00" from="-1016783293#0" to="8932422#0"/>
    <trip id="185" depart="185.00" from="24335460#0" to="48570006#3"/>
    <trip id="186" depart="186.00" from="515833903#0" to="414359348#1"/>
    <trip id="187" depart="187.00" from="-8938431#1" to="-184255656#1"/>
    <trip id="188" depart="188.00" from="397270027#1" to="-8931229#22"/>
    <trip id="189" depart="189.00" from="-8924939#3" to="8917284#3"/>
    <trip id="190" depart="190.00" from="475457050" to="-8921059#0"/>
    <trip id="191" depart="191.00" from="-8922083#0" to="1076777215#1"/>
    <trip id="192" depart="192.00" from="-985061716#7" to="-8920520#15"/>
    <trip id="193" depart="193.00" from="-283533806#1" to="1150226613"/>
    <trip id="194" depart="194.00" from="8935274#4" to="417105379#0"/>
    <trip id="195" depart="195.00" from="8925010#4" to="35744454"/>
    <trip id="196" depart="196.00" from="-8920704#10" to="254971073#4"/>
    <trip id="197" depart="197.00" from="-100400941#6" to="-8919613#1"/>
    <trip id="198" depart="198.00" from="1172193248#13" to="276171451#0"/>
    <trip id="199" depart="199.00" from="397116183" to="1347997144#2"/>
    <trip id="200" depart="200.00" from="12181914#10" to="-619568421#2"/>
    <trip id="201" depart="201.00" from="1356675870" to="8925372#2"/>
    <trip id="202" depart="202.00" from="717919507" to="-417979723#0"/>
    <trip id="203" depart="203.00" from="-228201785#0" to="225799921"/>
    <trip id="204" depart="204.00" from="394725516#1" to="-8932515#1"/>
    <trip id="205" depart="205.00" from="792392366#4" to="585655708#2"/>
    <trip id="206" depart="206.00" from="406944779#2" to="-685296795"/>
    <trip id="207" depart="207.00" from="-513881326#0" to="-12183866#2"/>
    <trip id="208" depart="208.00" from="-7872021#5" to="1409548043#0"/>
    <trip id="209" depart="209.00" from="8917104#6" to="-216707902#11"/>
    <trip id="210" depart="210.00" from="1065802914#2" to="396938387"/>
    <trip id="211" depart="211.00" from="-488579465#13" to="437558240#1"/>
    <trip id="212" depart="212.00" from="155373682#3" to="-7881823#0"/>
    <trip id="213" depart="213.00" from="397122980" to="-108194452#1"/>
    <trip id="214" depart="214.00" from="550230203#2" to="678038619#1"/>
    <trip id="215" depart="215.00" from="-255178087#4" to="1201050311"/>
    <trip id="216" depart="216.00" from="-437533749#8" to="8940126#3"/>
    <trip id="217" depart="217.00" from="224316524#1" to="-1381807756#0"/>
    <trip id="218" depart="218.00" from="-816368486#6" to="8917298#4"/>
    <trip id="219" depart="219.00" from="129384253#2" to="770522069#1"/>
    <trip id="220" depart="220.00" from="399156535#3" to="931811053#0"/>
    <trip id="221" depart="221.00" from="286265341#0" to="8938233#0"/>
    <trip id="222" depart="222.00" from="8921114#3" to="34128468#1"/>
    <trip id="223" depart="223.00" from="475175149#0" to="214514827#1"/>
    <trip id="224" depart="224.00" from="87235206#1" to="254971070#9"/>
    <trip id="225" depart="225.00" from="8922157#0" to="532065713#1"/>
    <trip id="226" depart="226.00" from="137812989" to="-8916494"/>
    <trip id="227" depart="227.00" from="-792589629#0" to="396964411"/>
    <trip id="228" depart="228.00" from="619979119#1" to="23073286#3"/>
    <trip id="229" depart="229.00" from="384772160#5" to="-8917929#7"/>
    <trip id="230" depart="230.00" from="-22376097#4" to="-8919490#5"/>
    <trip id="231" depart="231.00" from="-8917284#3" to="-8928014#2"/>
    <trip id="232" depart="232.00" from="24472526#3" to="-32121423#5"/>
    <trip id="233" depart="233.00" from="-707020639#0" to="437536521#17"/>
    <trip id="234" depart="234.00" from="44671101#6" to="-158622334#1"/>
    <trip id="235" depart="235.00" from="1030276071" to="254758115#3"/>
    <trip id="236" depart="236.00" from="1075101552" to="-572339346#1"/>
    <trip id="237" depart="237.00" from="1105340045" to="8926557#11"/>
    <trip id="238" depart="238.00" from="27433016#2" to="437555046#15"/>
    <trip id="239" depart="239.00" from="8917593#3" to="663877884#2"/>
    <trip id="240" depart="240.00" from="-8942530" to="-1083100057#3"/>
    <trip id="241" depart="241.00" from="-8935252#0" to="591570706#0"/>
    <trip id="242" depart="242.00" from="8917359#1" to="8939054"/>
    <trip id="243" depart="243.00" from="1089570011" to="566870076#16"/>
    <trip id="244" depart="244.00" from="254396708#5" to="30831502#0"/>
    <trip id="245" depart="245.00" from="-670137399#4" to="-678748550#2"/>
    <trip id="246" depart="246.00" from="1216148104#7" to="-122231753#1"/>
    <trip id="247" depart="247.00" from="-8931525#7" to="417328063#2"/>
    <trip id="248" depart="248.00" from="1001544696#6" to="-417313684#1"/>
    <trip id="249" depart="249.00" from="133856217#5" to="-286265327#2"/>
    <trip id="250" depart="250.00" from="364474994#0" to="-12189378"/>
    <trip id="251" depart="251.00" from="-92765211#9" to="258144380#4"/>
    <trip id="252" depart="252.00" from="-12187546#11" to="396987209#1"/>
    <trip id="253" depart="253.00" from="-30029878#7" to="133856226#0"/>
    <trip id="254" depart="254.00" from="-1381253282#1" to="-91041521#0"/>
    <trip id="255" depart="255.00" from="-586554299#9" to="-8930209#1"/>
    <trip id="256" depart="256.00" from="617704675#0" to="-91041527#0"/>
    <trip id="257" depart="257.00" from="563075030" to="8915948"/>
    <trip id="258" depart="258.00" from="-86331207#25" to="-225853135#3"/>
    <trip id="259" depart="259.00" from="-12174950#1" to="254305046#3"/>
    <trip id="260" depart="260.00" from="997431146#0" to="-8936075#6"/>
    <trip id="261" depart="261.00" from="397086249" to="686723206#1"/>
    <trip id="262" depart="262.00" from="397098844#1" to="59764940#1"/>
    <trip id="263" depart="263.00" from="8937880#0" to="-514656303#6"/>
    <trip id="264" depart="264.00" from="-12176784#4" to="-397109161#0"/>
    <trip id="265" depart="265.00" from="-283516316" to="409984416#2"/>
    <trip id="266" depart="266.00" from="255351743#1" to="-674001041"/>
    <trip id="267" depart="267.00" from="437536799#11" to="672208415"/>
    <trip id="268" depart="268.00" from="-417329335" to="319369687#1"/>
    <trip id="269" depart="269.00" from="527829990#1" to="-262937969#6"/>
    <trip id="270" depart="270.00" from="801323334" to="8941836#4"/>
    <trip id="271" depart="271.00" from="-255178146#4" to="-12186441#1"/>
    <trip id="272" depart="272.00" from="-8923641#1" to="417105397"/>
    <trip id="273" depart="273.00" from="8939892#1" to="1001544697#5"/>
    <trip id="274" depart="274.00" from="468538791#2" to="-224199010#6"/>
    <trip id="275" depart="275.00" from="417952848#0" to="394688636#0"/>
    <trip id="276" depart="276.00" from="-254971056#1" to="679078864#2"/>
    <trip id="277" depart="277.00" from="8917156#1" to="30030485#8"/>
    <trip id="278" depart="278.00" from="-27050839#1" to="92749443#6"/>
    <trip id="279" depart="279.00" from="681971902#2" to="-8935496#0"/>
    <trip id="280" depart="280.00" from="1151616882#1" to="-8941788#2"/>
    <trip id="281" depart="281.00" from="183248237#6" to="-8934222#3"/>
    <trip id="282" depart="282.00" from="8917096#2" to="86289469"/>
    <trip id="283" depart="283.00" from="-255178049#2" to="8940928#16"/>
    <trip id="284" depart="284.00" from="396940770#1" to="88559669#2"/>
    <trip id="285" depart="285.00" from="449492348#1" to="12182349#3"/>
    <trip id="286" depart="286.00" from="513704144#0" to="8942014#3"/>
    <trip id="287" depart="287.00" from="-8917166#18" to="7863318#4"/>
    <trip id="288" depart="288.00" from="24335451#0" to="147396720#14"/>
    <trip id="289" depart="289.00" from="1216148098#1" to="514398801#1"/>
    <trip id="290" depart="290.00" from="-8917017#8" to="8917520#1"/>
    <trip id="291" depart="291.00" from="87235216#1" to="-23876671#3"/>
    <trip id="292" depart="292.00" from="8920117#2" to="-7880796#0"/>
    <trip id="293" depart="293.00" from="133748352#2" to="32929419#0"/>
    <trip id="294" depart="294.00" from="-8942189#2" to="-12191511#2"/>
    <trip id="295" depart="295.00" from="8917184#1" to="-464900404#1"/>
    <trip id="296" depart="296.00" from="-587057156#4" to="762202749#0"/>
    <trip id="297" depart="297.00" from="-8932513#0" to="8920435#1"/>
    <trip id="298" depart="298.00" from="437556515#1" to="-8918512#0"/>
    <trip id="299" depart="299.00" from="-1122037242" to="8937891#3"/>
    <trip id="300" depart="300.00" from="-23073465#5" to="488801010#0"/>
    <trip id="301" depart="301.00" from="1453744423#0" to="619378862"/>
    <trip id="302" depart="302.00" from="417951320#1" to="397096359"/>
    <trip id="303" depart="303.00" from="147637586#0" to="737407559#2"/>
    <trip id="304" depart="304.00" from="-24447871#5" to="-681178971"/>
    <trip id="305" depart="305.00" from="417964541#5" to="-8922384#3"/>
    <trip id="306" depart="306.00" from="27166466#1" to="1386307662#1"/>
    <trip id="307" depart="307.00" from="23765962#1" to="120257665#1"/>
    <trip id="308" depart="308.00" from="52094532#1" to="-8931429#0"/>
    <trip id="309" depart="309.00" from="437559563#1" to="-8917520#5"/>
    <trip id="310" depart="310.00" from="-85644912#0" to="-273127835#0"/>
    <trip id="311" depart="311.00" from="-48208048#3" to="-27092233#9"/>
    <trip id="312" depart="312.00" from="24204027" to="620728083#3"/>
    <trip id="313" depart="313.00" from="-465117063#1" to="-654546456#0"/>
    <trip id="314" depart="314.00" from="143317441" to="505782674"/>
    <trip id="315" depart="315.00" from="91052160#1" to="237300267#10"/>
    <trip id="316" depart="316.00" from="-8918946" to="-254982292#2"/>
    <trip id="317" depart="317.00" from="-484525013#0" to="-706507144#5"/>
    <trip id="318" depart="318.00" from="-437559564#3" to="-1175223867#1"/>
    <trip id="319" depart="319.00" from="23959863#1" to="-8917869#6"/>
    <trip id="320" depart="320.00" from="90942447#0" to="255178087#3"/>
    <trip id="321" depart="321.00" from="43100743#2" to="-28575530#7"/>
    <trip id="322" depart="322.00" from="8919116#2" to="158620948#1"/>
    <trip id="323" depart="323.00" from="8919428#4" to="27044185#1"/>
    <trip id="324" depart="324.00" from="133856295#0" to="12190345#0"/>
    <trip id="325" depart="325.00" from="-464903422#6" to="-1388076639#2"/>
    <trip id="326" depart="326.00" from="8935489#4" to="1429402831#0"/>
    <trip id="327" depart="327.00" from="833340996" to="1032790760"/>
    <trip id="328" depart="328.00" from="-215848117" to="396935402"/>
    <trip id="329" depart="329.00" from="-1392456482#2" to="-396956434#7"/>
    <trip id="330" depart="330.00" from="255351711#5" to="-8921659#1"/>
    <trip id="331" depart="331.00" from="966201482#8" to="-27031206"/>
    <trip id="332" depart="332.00" from="619568402#0" to="31496242#6"/>
    <trip id="333" depart="333.00" from="705798808#0" to="-70051598"/>
    <trip id="334" depart="334.00" from="225808826#1" to="129390194#10"/>
    <trip id="335" depart="335.00" from="12182801#5" to="8918805#1"/>
    <trip id="336" depart="336.00" from="942537645" to="-8922128#3"/>
    <trip id="337" depart="337.00" from="35799645#7" to="32742852#3"/>
    <trip id="338" depart="338.00" from="514719454" to="8937778#5"/>
    <trip id="339" depart="339.00" from="-550230199#0" to="-598719661"/>
    <trip id="340" depart="340.00" from="397152177#1" to="-398677931#5"/>
    <trip id="341" depart="341.00" from="-425624293#1" to="-222818887#1"/>
    <trip id="342" depart="342.00" from="-1034016031#1" to="129390194#0"/>
    <trip id="343" depart="343.00" from="286004350#5" to="-8920010#0"/>
    <trip id="344" depart="344.00" from="-707129475#4" to="465138688"/>
    <trip id="345" depart="345.00" from="437560092#0" to="131508248#8"/>
    <trip id="346" depart="346.00" from="417341718#4" to="8932008#2"/>
    <trip id="347" depart="347.00" from="693633428#8" to="394172901#1"/>
    <trip id="348" depart="348.00" from="397155333#1" to="8934428#11"/>
    <trip id="349" depart="349.00" from="1122268849#1" to="254759931#0"/>
    <trip id="350" depart="350.00" from="396985897" to="8927584#2"/>
    <trip id="351" depart="351.00" from="857698516#4" to="-204884121#0"/>
    <trip id="352" depart="352.00" from="-417086216#0" to="-8922927#0"/>
    <trip id="353" depart="353.00" from="534768705" to="26787785"/>
    <trip id="354" depart="354.00" from="-8919412#1" to="-283523321"/>
    <trip id="355" depart="355.00" from="417390893#1" to="44354761#1"/>
    <trip id="356" depart="356.00" from="8935861#1" to="184255690"/>
    <trip id="357" depart="357.00" from="154647382#0" to="-225808830#3"/>
    <trip id="358" depart="358.00" from="-1328225418#1" to="12177954#1"/>
    <trip id="359" depart="359.00" from="-8927344#2" to="-864000411#1"/>
    <trip id="360" depart="360.00" from="-24333148" to="8941271#0"/>
    <trip id="361" depart="361.00" from="8915750#1" to="27145532#0"/>
    <trip id="362" depart="362.00" from="8938070" to="996695181#3"/>
    <trip id="363" depart="363.00" from="406722498" to="-8917408#0"/>
    <trip id="364" depart="364.00" from="-133376114#3" to="617893861#0"/>
    <trip id="365" depart="365.00" from="1343731243" to="397126681#2"/>
    <trip id="366" depart="366.00" from="8929229#0" to="-46272291#9"/>
    <trip id="367" depart="367.00" from="27614369#2" to="396954110#4"/>
    <trip id="368" depart="368.00" from="148899888#0" to="-24447871#3"/>
    <trip id="369" depart="369.00" from="-8934453#8" to="-8932112#1"/>
    <trip id="370" depart="370.00" from="403420347#1" to="8918301#1"/>
    <trip id="371" depart="371.00" from="-8929644#1" to="437535047#0"/>
    <trip id="372" depart="372.00" from="-8919398#14" to="8937002#5"/>
    <trip id="373" depart="373.00" from="7865444#1" to="255170238#4"/>
    <trip id="374" depart="374.00" from="1280785141#1" to="-8926358#3"/>
    <trip id="375" depart="375.00" from="-8927595#13" to="89812411#19"/>
    <trip id="376" depart="376.00" from="1001544695#3" to="225516711#3"/>
    <trip id="377" depart="377.00" from="932341656" to="397167862"/>
    <trip id="378" depart="378.00" from="25292245#4" to="1108077480"/>
    <trip id="379" depart="379.00" from="-468441207#2" to="-8939449#2"/>
    <trip id="380" depart="380.00" from="586554299#4" to="394186199"/>
    <trip id="381" depart="381.00" from="608185013#2" to="-52432940#2"/>
    <trip id="382" depart="382.00" from="254758137#5" to="8932938#3"/>
    <trip id="383" depart="383.00" from="12175977#2" to="437751146#7"/>
    <trip id="384" depart="384.00" from="-27092233#2" to="90868208#0"/>
    <trip id="385" depart="385.00" from="30831490#9" to="-7863318#5"/>
    <trip id="386" depart="386.00" from="-397250671#2" to="255170262#0"/>
    <trip id="387" depart="387.00" from="254968944#2" to="-25371463"/>
    <trip id="388" depart="388.00" from="947721666" to="8929187#0"/>
    <trip id="389" depart="389.00" from="1330449897" to="-27028349#1"/>
    <trip id="390" depart="390.00" from="88142687#1" to="170150747#26"/>
    <trip id="391" depart="391.00" from="47160824#0" to="222602187#2"/>
    <trip id="392" depart="392.00" from="-8917440#4" to="8916295#3"/>
    <trip id="393" depart="393.00" from="91517995#8" to="-7880225#1"/>
    <trip id="394" depart="394.00" from="254759964#5" to="-922508900#3"/>
    <trip id="395" depart="395.00" from="8930844#3" to="219545675#0"/>
    <trip id="396" depart="396.00" from="8919930#0" to="8919099#0"/>
    <trip id="397" depart="397.00" from="-8917710#1" to="712900328"/>
    <trip id="398" depart="398.00" from="106892768#6" to="8934517#1"/>
    <trip id="399" depart="399.00" from="191297196#2" to="85562546#4"/>
    <trip id="400" depart="400.00" from="-8918939#4" to="-8920853#0"/>
    <trip id="401" depart="401.00" from="278713840#0" to="99278924#7"/>
    <trip id="402" depart="402.00" from="147397959#2" to="-396952966#32"/>
    <trip id="403" depart="403.00" from="24335467" to="-8935037#6"/>
    <trip id="404" depart="404.00" from="254759980#1" to="254759908#0"/>
    <trip id="405" depart="405.00" from="1286171778#1" to="-8928826#0"/>
    <trip id="406" depart="406.00" from="-47108401#10" to="437559493#5"/>
    <trip id="407" depart="407.00" from="262802279#5" to="-762957925#4"/>
    <trip id="408" depart="408.00" from="678504832#2" to="-133856257#0"/>
    <trip id="409" depart="409.00" from="519998121#0" to="464909273#0"/>
    <trip id="410" depart="410.00" from="7855937" to="-92753338#7"/>
    <trip id="411" depart="411.00" from="397255747#1" to="85562572#1"/>
    <trip id="412" depart="412.00" from="91797303" to="161625023#4"/>
    <trip id="413" depart="413.00" from="-129736766#6" to="192552506#1"/>