<routes>
	<!-- normal vehicles -->
	<vType
	id="car" accel="2.6" decel="4.5" length="5" maxSpeed="20"/>

	<!-- emergency vehicles -->
	<vType
	id="emergency" accel="2.6" decel="4.5" length="5" maxSpeed="25" color="1,0,0"/>

	<!-- base route for background traffic -->
	<route
	id="route0" edges="10000698136_0 10000698137_0"/>


	<!-- route for emergency vehicles (must match your Python code) -->
	<route
	id="ev_route_0" edges="10000754015_0 10000754016_0"/>


	<!-- flow of background vehicles -->
	<flow id="flow_0" type="car" route="route0" begin="0" end="3600" vehsPerHour="600"/>
</routes>
